Circuit: * F:\_GithubBK-CV_W10\R-Pi\RUN-Reset\model.asc

Direct Newton iteration for .op point succeeded.

Date: Mon Sep 04 10:34:43 2023
Total elapsed time: 0.696 seconds.

tnom = 27
temp = 27
method = modified trap
totiter = 454463
traniter = 454459
tranpoints = 108189
accept = 81679
rejected = 26510
matrix size = 9
fillins = 1
solver = Normal
Matrix Compiler1: 354 bytes object code size  0.1/0.0/[0.0]
Matrix Compiler2: off  [0.0]/0.1/0.0

