Circuit: * F:\_GithubBK-CV_W10\R-Pi\model.asc

Direct Newton iteration for .op point succeeded.

Date: Fri Sep 01 09:45:56 2023
Total elapsed time: 0.636 seconds.

tnom = 27
temp = 27
method = modified trap
totiter = 449344
traniter = 449340
tranpoints = 106865
accept = 80790
rejected = 26075
matrix size = 9
fillins = 1
solver = Normal
Matrix Compiler1: 340 bytes object code size  0.1/0.0/[0.0]
Matrix Compiler2: 599 bytes object code size  0.0/0.1/[0.0]

